Version 4
SHEET 1 2644 836
WIRE 416 -544 416 -560
WIRE 384 -432 256 -432
WIRE 496 -400 464 -400
WIRE 832 -400 656 -400
WIRE 384 -368 208 -368
WIRE 1168 -256 1056 -256
WIRE 1392 -256 1248 -256
WIRE 416 -240 416 -256
WIRE 80 -192 32 -192
WIRE 208 -192 208 -368
WIRE 208 -192 80 -192
WIRE 1808 -176 1760 -176
WIRE 1856 -176 1808 -176
WIRE 256 -160 256 -432
WIRE 448 -160 256 -160
WIRE 656 -160 528 -160
WIRE 832 -160 832 -400
WIRE 832 -160 656 -160
WIRE 32 -144 32 -192
WIRE 256 -144 256 -160
WIRE 256 -144 144 -144
WIRE 1760 -128 1760 -176
WIRE 144 -112 144 -144
WIRE 256 -112 256 -144
WIRE 704 -112 704 -224
WIRE 832 -112 832 -160
WIRE 864 -112 832 -112
WIRE 912 -112 864 -112
WIRE 1056 -112 1056 -256
WIRE 1056 -112 992 -112
WIRE 1168 -112 1056 -112
WIRE 1360 -112 1328 -112
WIRE 1392 -112 1392 -256
WIRE 1392 -112 1360 -112
WIRE 1440 -112 1392 -112
WIRE 1568 -112 1520 -112
WIRE 1600 -112 1568 -112
WIRE 1712 -112 1664 -112
WIRE 656 -96 656 -160
WIRE 1168 -80 1088 -80
WIRE 1664 -64 1600 -112
WIRE 1712 -64 1664 -64
WIRE 864 -48 832 -48
WIRE 912 -48 864 -48
WIRE 1040 -48 992 -48
WIRE 1168 -48 1040 -48
WIRE 1360 -48 1328 -48
WIRE 1392 -48 1360 -48
WIRE 1440 -48 1392 -48
WIRE 1568 -48 1520 -48
WIRE 1616 -48 1664 -112
WIRE 1616 -48 1568 -48
WIRE 704 -16 704 -32
WIRE 1760 -16 1760 -48
WIRE 144 0 144 -32
WIRE 1088 0 1088 -80
WIRE 256 16 256 -32
WIRE 448 16 256 16
WIRE 656 16 656 -48
WIRE 656 16 528 16
WIRE 832 16 832 -48
WIRE 832 16 656 16
WIRE 1200 48 1200 0
WIRE 32 64 32 -64
WIRE 208 64 32 64
WIRE 1088 80 1088 64
WIRE 432 96 432 80
WIRE 32 144 32 64
WIRE 1040 144 1040 -48
WIRE 1184 144 1040 144
WIRE 1392 144 1392 -48
WIRE 1392 144 1264 144
WIRE 256 208 256 16
WIRE 400 208 256 208
WIRE 512 240 480 240
WIRE 832 240 832 16
WIRE 832 240 672 240
WIRE 208 272 208 64
WIRE 400 272 208 272
WIRE 32 288 32 224
WIRE 2144 320 2144 288
WIRE 2224 320 2224 288
WIRE 2304 320 2304 288
WIRE 432 400 432 384
WIRE 2144 416 2144 400
WIRE 2224 416 2224 400
WIRE 2304 416 2304 400
FLAG 2224 416 0
FLAG 2304 416 0
FLAG 2224 288 v+
FLAG 2304 288 v-
FLAG 32 288 0
FLAG 80 -192 Vin
FLAG 432 80 v+
FLAG 432 400 v-
FLAG 416 -560 v+
FLAG 416 -240 v-
FLAG 1088 80 0
FLAG 864 -112 diff+
FLAG 864 -48 diff-
FLAG 1360 -48 out+
FLAG 1360 -112 out-
FLAG 2144 416 0
FLAG 1200 48 0
FLAG 2144 288 vcc
FLAG 1200 -160 vcc
FLAG 1760 -16 0
FLAG 1808 -176 Vout
FLAG 1232 0 vcc
FLAG 704 -16 0
FLAG 704 -224 diffout
SYMBOL voltage 2224 304 R0
WINDOW 123 0 0 Left 2
WINDOW 39 0 0 Left 2
SYMATTR InstName V1
SYMATTR Value 5
SYMBOL voltage 2304 304 R0
WINDOW 123 0 0 Left 2
WINDOW 39 0 0 Left 2
SYMATTR InstName V2
SYMATTR Value -5
SYMBOL voltage 32 -160 R0
WINDOW 123 -24 56 Left 2
WINDOW 39 0 0 Left 2
WINDOW 3 -53 -37 VRight 2
WINDOW 0 -85 -15 VRight 2
SYMATTR Value2 AC 1
SYMATTR Value SINE(0 .01 1000)
SYMATTR InstName Vin_source
SYMBOL Opamps\\LTC2057 560 240 R0
SYMATTR InstName U2
SYMBOL Opamps\\LTC2057 544 -400 R0
SYMATTR InstName U3
SYMBOL res 544 -176 R90
WINDOW 0 0 56 VBottom 2
WINDOW 3 32 56 VTop 2
SYMATTR InstName R1
SYMATTR Value 9k
SYMBOL res 544 0 R90
WINDOW 0 0 56 VBottom 2
WINDOW 3 32 56 VTop 2
SYMATTR InstName R2
SYMATTR Value 9k
SYMBOL res 272 -16 R180
WINDOW 0 36 76 Left 2
WINDOW 3 36 40 Left 2
SYMATTR InstName R3
SYMATTR Value 1k
SYMBOL voltage 32 128 R0
WINDOW 123 0 0 Left 2
WINDOW 39 0 0 Left 2
SYMATTR InstName V3
SYMATTR Value 1
SYMBOL cap 1072 0 R0
SYMATTR InstName C1
SYMATTR Value 0.1µ
SYMBOL res 1008 -128 R90
WINDOW 0 4 104 VBottom 2
WINDOW 3 -22 8 VTop 2
SYMATTR InstName R4
SYMATTR Value 1k
SYMBOL res 1008 -64 R90
WINDOW 0 7 108 VBottom 2
WINDOW 3 -17 7 VTop 2
SYMATTR InstName R5
SYMATTR Value 1k
SYMBOL res 1264 -272 R90
WINDOW 0 0 56 VBottom 2
WINDOW 3 32 56 VTop 2
SYMATTR InstName R6
SYMATTR Value 1k
SYMBOL res 1280 128 R90
WINDOW 0 0 56 VBottom 2
WINDOW 3 32 56 VTop 2
SYMATTR InstName R7
SYMATTR Value 1k
SYMBOL voltage 2144 304 R0
WINDOW 123 0 0 Left 2
WINDOW 39 0 0 Left 2
SYMATTR InstName V4
SYMATTR Value 5
SYMBOL e 1760 -144 R0
SYMATTR InstName E1
SYMATTR Value 1
SYMBOL e 704 -128 R0
SYMATTR InstName E2
SYMATTR Value 1
SYMBOL res 128 -128 R0
SYMATTR InstName R8
SYMATTR Value 1k
SYMBOL cap 1552 -112 R0
WINDOW 0 -36 33 Left 2
WINDOW 3 19 86 Left 2
SYMATTR InstName C2
SYMATTR Value 2200p
SYMBOL res 1536 -128 R90
WINDOW 0 -2 101 VBottom 2
WINDOW 3 -22 28 VTop 2
SYMATTR InstName R9
SYMATTR Value 40
SYMBOL res 1536 -64 R90
WINDOW 0 56 94 VBottom 2
WINDOW 3 36 15 VTop 2
SYMATTR InstName R10
SYMATTR Value 40
SYMBOL Opamps\\LTC6363 1232 -80 R0
SYMATTR InstName U4
TEXT 784 408 Left 2 !.noise V(Vout) Vin_source lin 1048575 0.5 250k
TEXT 784 440 Left 2 !;tran .01
TEXT -24 -568 Left 3 ;LTC2057 Properties:\nNoise: 13nV/rootHz\nOffset: 0.5uV typ, 5uV max
TEXT 936 -672 Left 3 ;Diffamp Output Properties for G=19:\nNoise = 11nV/rootHz x 1.414 * 19 = 295nV/rootHz\nOffset = 19uV typ, 190uV max\n \nDiffamp Output Properties for G=37:\nNoise = 11nV/rootHz x 1.414 * 37 = 575nV/rootHz\nOffset = 37uV typ, 370uV max
TEXT 1424 -344 Left 3 ;LTC6363 Properties:\nNoise: 2.9nV/rootHz\n1/f corner at 10kHz or so\nOffset: 10uV typical, 60uV max
TEXT 1352 184 Left 3 ;Broadband driver noise filter\nCutoff = 1/(2*pi*80*2200pF) = 904kHz
TEXT -32 -808 Left 4 ;Low-Noise, Wide common-mode range,\nHigh input impedance SAR driver\nGain=19 or 37, depending on LT5400 connection
TEXT 784 360 Left 2 ;16K transform, 62.5Hz bin size: .noise V(Vout) Vin_source lin 16383 62.5 5Meg
RECTANGLE Normal 2064 480 -128 -880 2
