Version 4
SHEET 1 2236 680
WIRE 848 -144 -112 -144
WIRE 1104 16 1104 -80
WIRE 544 96 544 32
WIRE 672 96 672 32
WIRE -112 112 -112 -144
WIRE 32 112 -112 112
WIRE 176 112 32 112
WIRE 1072 128 944 128
WIRE -112 160 -112 112
WIRE 1184 160 1152 160
WIRE 1536 160 1344 160
WIRE 1600 160 1536 160
WIRE 1776 160 1600 160
WIRE 1968 160 1856 160
WIRE 2144 160 1968 160
WIRE 848 192 848 -144
WIRE 1072 192 848 192
WIRE 1536 208 1536 160
WIRE 1968 208 1968 160
WIRE 544 224 544 176
WIRE 672 224 672 176
WIRE -112 304 -112 240
WIRE 1536 304 1536 288
WIRE 1536 304 1376 304
WIRE 1968 304 1968 272
WIRE 1536 336 1536 304
WIRE 1104 352 1104 304
WIRE 944 400 944 128
WIRE 1376 400 1376 304
WIRE 1376 400 944 400
WIRE 1536 432 1536 416
FLAG 544 224 0
FLAG 672 224 0
FLAG 544 32 v+
FLAG 672 32 v-
FLAG -112 304 0
FLAG 32 112 Vin
FLAG 1104 -80 v+
FLAG 1104 352 v-
FLAG 1536 432 0
FLAG 2144 160 Vout2
FLAG 1600 160 Vout1
FLAG 1968 304 0
SYMBOL voltage 544 80 R0
WINDOW 123 0 0 Left 2
WINDOW 39 0 0 Left 2
SYMATTR InstName V1
SYMATTR Value 2.5
SYMBOL voltage 672 80 R0
WINDOW 123 0 0 Left 2
WINDOW 39 0 0 Left 2
SYMATTR InstName V2
SYMATTR Value -2.5
SYMBOL voltage -112 144 R0
WINDOW 123 24 124 Left 2
WINDOW 39 0 0 Left 2
SYMATTR Value2 AC 1
SYMATTR InstName Vin_source
SYMATTR Value ""
SYMBOL Opamps\\LTC2057 1232 160 R0
SYMATTR InstName U2
SYMBOL res 1520 192 R0
SYMATTR InstName Rf1
SYMATTR Value 900
SYMBOL res 1520 320 R0
SYMATTR InstName Rg1
SYMATTR Value 100
SYMBOL res 1872 144 R90
WINDOW 0 0 56 VBottom 2
WINDOW 3 32 56 VTop 2
SYMATTR InstName R1
SYMATTR Value 1k
SYMBOL cap 1952 208 R0
SYMATTR InstName C1
SYMATTR Value .01µ
TEXT -232 376 Left 2 !.noise V(Vout2) Vin_source lin 16383 62.5 2.048Meg
